Circuit: * C:\Users\greco\Documents\LTspiceXVII\drafts\LTSpice\555Astable.asc

WARNING: Less than two connections to node N008.  This node is used by A1.
WARNING: Less than two connections to node N005.  This node is used by A3.
Direct Newton iteration for .op point succeeded.

Date: Tue May 31 18:08:54 2022
Total elapsed time: 0.845 seconds.

tnom = 27
temp = 27
method = modified trap
totiter = 61335
traniter = 61303
tranpoints = 16459
accept = 11543
rejected = 4916
matrix size = 134
fillins = 97
solver = Normal
Thread vector: 11.0/7.1[3] 5.1/2.5[3] 4.4/2.4[3] 0.4/1.0[1]  2592/500
Matrix Compiler1: 11.29 KB object code size  2.3/2.5/[0.7]
Matrix Compiler2: 12.35 KB object code size  2.0/2.4/[0.7]

