Circuit: * C:\Users\greco\Documents\LTspiceXVII\drafts\LTSpice\555Astable with AD8627.asc

WARNING: Less than two connections to node N008.  This node is used by A1.
WARNING: Less than two connections to node N005.  This node is used by A3.
Direct Newton iteration for .op point succeeded.

Date: Wed Jun 01 10:26:38 2022
Total elapsed time: 1.546 seconds.

tnom = 27
temp = 27
method = modified trap
totiter = 60674
traniter = 60642
tranpoints = 16378
accept = 11525
rejected = 4853
matrix size = 134
fillins = 97
solver = Normal
Thread vector: 22.6/12.9[3] 6.7/4.9[3] 5.7/3.8[3] 1.0/2.0[1]  2592/500
Matrix Compiler1: 11.29 KB object code size  4.0/2.7/[1.6]
Matrix Compiler2: 12.35 KB object code size  2.2/2.9/[1.2]

