Circuit: * C:\Users\greco\Documents\LTspiceXVII\drafts\LTSpice\Draft1.asc

Direct Newton iteration for .op point succeeded.

Date: Tue May 31 18:00:42 2022
Total elapsed time: 0.103 seconds.

tnom = 27
temp = 27
method = modified trap
totiter = 7208
traniter = 7205
tranpoints = 2112
accept = 1480
rejected = 632
matrix size = 8
fillins = 0
solver = Normal
Matrix Compiler1:      20 opcodes  0.1/[0.1]/0.1
Matrix Compiler2: 618 bytes object code size  0.1/0.1/[0.1]

