Circuit: * C:\Users\greco\Documents\LTspiceXVII\drafts\LTSpice\Draft1.asc

Per .tran options, skipping operating point for transient analysis.

Date: Mon Jun 27 15:11:34 2022
Total elapsed time: 0.298 seconds.

tnom = 27
temp = 27
method = modified trap
totiter = 30142
traniter = 30142
tranpoints = 7050
accept = 5222
rejected = 1828
matrix size = 15
fillins = 0
solver = Normal
Matrix Compiler1: 514 bytes object code size  0.1/0.1/[0.1]
Matrix Compiler2: 883 bytes object code size  0.1/0.1/[0.1]

