Circuit: * C:\Users\greco\Documents\LTspiceXVII\drafts\LTSpice\LC.asc

WARNING: Node OUT is floating.
WARNING: Node NC_02 is floating.
WARNING: Node NC_04 is floating.
WARNING: Node NC_05 is floating.
WARNING: Node NC_06 is floating.

WARNING: Less than two connections to node NC_01.  This node is used by L2.
WARNING: Less than two connections to node NC_02.  This node is used by L2.
WARNING: Less than two connections to node NC_03.  This node is used by L1.
WARNING: Less than two connections to node NC_04.  This node is used by L1.
WARNING: Less than two connections to node NC_05.  This node is used by C2.
WARNING: Less than two connections to node NC_06.  This node is used by C2.
.OP point found by inspection.

Date: Tue May 31 17:03:34 2022
Total elapsed time: 5.000 seconds.

tnom = 27
temp = 27
method = modified trap
totiter = 803479
traniter = 803479
tranpoints = 401734
accept = 285256
rejected = 116478
matrix size = 16
fillins = 4
solver = Normal
Matrix Compiler1: 1010 bytes object code size  0.3/0.1/[0.1]
Matrix Compiler2: 1.20 KB object code size  0.1/0.2/[0.1]

