Circuit: * C:\Users\greco\Documents\LTspiceXVII\drafts\LTSpice\RC oscillator, square, triangular and sine.asc

WARNING: Node NC_02 is floating.
WARNING: Node NC_01 is floating.
WARNING: Node NC_07 is floating.
WARNING: Node NC_06 is floating.

WARNING: Less than two connections to node NC_12.  This node is used by L:U4:1.
Per .tran options, skipping operating point for transient analysis.

Date: Tue May 31 17:39:46 2022
Total elapsed time: 0.084 seconds.

tnom = 27
temp = 27
method = modified trap
totiter = 3404
traniter = 3404
tranpoints = 864
accept = 637
rejected = 227
matrix size = 139
fillins = 146
solver = Normal
Thread vector: 15.8/6.0[3] 3.6/2.2[3] 2.8/1.3[3] 0.9/1.0[1]  2592/500
Matrix Compiler1: 15.89 KB object code size  2.9/1.6/[1.6]
Matrix Compiler2: 13.27 KB object code size  1.0/1.3/[0.5]

