Circuit: * C:\Users\greco\Documents\LTspiceXVII\drafts\LTSpice\RC oscillator, square, triangular and sine with AD8627.asc

WARNING: Node NC_02 is floating.
WARNING: Node NC_01 is floating.
WARNING: Node NC_07 is floating.
WARNING: Node NC_06 is floating.

Per .tran options, skipping operating point for transient analysis.
Changing Tseed to 1e-008
Changing Tseed to 1e-010

Date: Tue May 31 20:49:44 2022
Total elapsed time: 15.994 seconds.

tnom = 27
temp = 27
method = modified trap
totiter = 1167907
traniter = 1167907
tranpoints = 286378
accept = 204564
rejected = 81812
matrix size = 137
fillins = 73
solver = Normal
Thread vector: 12.2/6.1[3] 3.7/2.0[3] 2.8/1.3[3] 0.4/1.0[1]  2592/500
Matrix Compiler1: 9.83 KB object code size  2.0/1.0/[0.4]
Matrix Compiler2: 12.02 KB object code size  1.0/1.2/[0.4]

