Circuit: * C:\Users\greco\Documents\LTspiceXVII\drafts\LTSpice\RC oscillator, square, triangular and sine with AD8627.asc

WARNING: Node NC_02 is floating.
WARNING: Node NC_01 is floating.
WARNING: Node NC_07 is floating.
WARNING: Node NC_06 is floating.

Per .tran options, skipping operating point for transient analysis.
Changing Tseed to 1e-008
Changing Tseed to 1e-010

Date: Tue May 31 17:54:40 2022
Total elapsed time: 3.713 seconds.

tnom = 27
temp = 27
method = modified trap
totiter = 277310
traniter = 277310
tranpoints = 69898
accept = 50024
rejected = 19872
matrix size = 137
fillins = 73
solver = Normal
Thread vector: 14.4/6.0[3] 3.6/2.3[3] 2.8/1.2[3] 0.4/0.9[1]  2592/500
Matrix Compiler1: 9.83 KB object code size  1.9/1.1/[0.5]
Matrix Compiler2: 12.02 KB object code size  0.9/1.2/[0.5]

