Circuit: * C:\Users\greco\Documents\LTspiceXVII\drafts\LTSpice\RC oscillator, square, triangular and sine.asc

Per .tran options, skipping operating point for transient analysis.

Date: Tue May 31 20:51:19 2022
Total elapsed time: 6.639 seconds.

tnom = 27
temp = 27
method = modified trap
totiter = 1166234
traniter = 1166234
tranpoints = 422457
accept = 298133
rejected = 124324
matrix size = 19
fillins = 10
solver = Normal
Thread vector: 4.9/4.1[2] 1.4/1.2[2] 0.5/0.5[1] 0.1/0.4[1]  2592/500
Matrix Compiler1: 1.20 KB object code size  0.3/0.2/[0.1]
Matrix Compiler2: 1.80 KB object code size  0.2/0.2/[0.1]

