Circuit: * C:\Users\greco\Documents\LTspiceXVII\drafts\LTSpice\LC.asc

WARNING: Node OUT is floating.
WARNING: Node NC_02 is floating.
WARNING: Node NC_04 is floating.
WARNING: Node NC_05 is floating.
WARNING: Node NC_06 is floating.

WARNING: Less than two connections to node NC_01.  This node is used by L2.
WARNING: Less than two connections to node NC_02.  This node is used by L2.
WARNING: Less than two connections to node NC_03.  This node is used by L1.
WARNING: Less than two connections to node NC_04.  This node is used by L1.
WARNING: Less than two connections to node NC_05.  This node is used by C2.
WARNING: Less than two connections to node NC_06.  This node is used by C2.
.OP point found by inspection.

Date: Mon Jul 04 16:49:00 2022
Total elapsed time: 12.045 seconds.

tnom = 27
temp = 27
method = modified trap
totiter = 1238793
traniter = 1238793
tranpoints = 619388
accept = 398193
rejected = 221195
matrix size = 16
fillins = 4
solver = Normal
Matrix Compiler1: 1010 bytes object code size  0.3/0.2/[0.1]
Matrix Compiler2: off  [0.2]/0.2/0.2

